63
	Energy: -3401999.8304619
Mn        -1.14084       -2.02031       -0.07247
C         -2.05650       -2.89445       -1.41935
O         -2.55247       -3.48041       -2.26194
C         -2.04901       -2.98496        1.21830
O         -2.52948       -3.63073        2.02526
C          0.12638       -3.27964       -0.11699
N         -0.24046       -0.90582        1.50199
C         -0.52478        0.64851        3.29880
C          0.84907        0.85964        3.36290
C          1.08206       -0.76195        1.63050
H         -1.20970        1.17685        3.96203
H          1.26772        1.58246        4.06642
N         -2.31131        0.82647        0.00208
C         -2.75042        1.89594        0.03017
C         -3.29969        3.22243        0.06642
C         -2.44575        4.33045       -0.04106
C         -2.98398        5.61279       -0.00535
C         -4.68432        3.39644        0.20863
H         -1.37044        4.18131       -0.15190
H         -5.33803        2.52654        0.29168
N         -0.23294       -0.80527       -1.56858
C         -0.50569        0.85238       -3.27243
C          0.86693        1.07815       -3.30360
H         -1.18553        1.41471       -3.91259
C         -1.03180       -0.22600        2.34819
H         -2.10698       -0.37700        2.24691
C         -1.01815       -0.08291       -2.38449
H         -2.09311       -0.24939       -2.30947
H         -2.32523        6.47894       -0.08843
O          0.95513       -4.07157       -0.14576
C          3.21201        0.60011        0.03173
C          5.99319        0.60061        0.03885
C          1.69084        0.14181        2.50904
C          3.16813        0.31517        2.50662
C          3.88189        0.26904        3.67782
C          5.30413        0.36368        3.68436
C          6.00071        0.46566        2.51418
C          5.31181        0.51377        1.25951
C          3.87632        0.48464        1.25540
H          3.35773        0.11809        4.62440
H          5.83345        0.32236        4.63812
H          7.09241        0.50386        2.51680
C          3.88218        0.57420       -1.19373
C          5.31779        0.60468       -1.18835
C          6.01301        0.65090       -2.43957
C          5.32227        0.63507       -3.61754
C          3.90031        0.53720       -3.62510
C          3.18019        0.49533       -2.45741
H          7.10465        0.69094       -2.43399
H          5.85620        0.66555       -4.56914
H          3.38178        0.45492       -4.58324
C          1.70364        0.31635       -2.48334
H          1.28864        1.84544       -3.95626
C          1.08993       -0.64230       -1.66856
H          1.71029       -1.30623       -1.06742
H          1.70615       -1.39530        1.00028
C         -4.36137        5.78960        0.13616
C         -5.20809        4.68519        0.24270
H         -6.28438        4.82771        0.35300
H         -4.77887        6.79814        0.16362
Br        -4.94895       -1.71019       -0.01043
H          7.08507        0.64961        0.04374
H          2.13057        0.70351        0.03290
