60
	Energy: -2237802.2740719
Mn         3.17938        0.19992       -0.39826
C          3.97225       -0.36837       -1.95223
C          4.57667       -0.45632        0.57377
C          4.00767        1.83397       -0.45914
N          2.11407        0.78002        1.38119
N          2.09541       -1.66701       -0.26248
C          2.73236        1.10667        2.52985
C          2.04131        1.52574        3.65819
C          0.65157        1.62438        3.61442
C         -0.00334        1.28037        2.43313
C          0.78354        0.86394        1.36057
C          0.79620       -1.72638       -0.56517
C         -0.02327       -2.82644       -0.31931
C          2.65276       -2.78007        0.24654
C          1.93480       -3.94578        0.47579
C          0.56850       -3.97302        0.20527
C         -1.47897       -2.68223       -0.60353
C         -1.47018        1.42432        2.21800
C         -2.28326        0.34780        1.81146
C         -2.29304       -1.91665        0.25240
C         -3.62819        0.57267        1.48368
C         -3.63564       -1.68932       -0.07590
C         -2.04242       -3.25393       -1.74721
C         -2.04460        2.69411        2.34476
C         -3.38311        2.90958        2.02874
C         -3.38088       -3.03253       -2.06468
C         -4.17205       -2.23134       -1.24655
C         -4.17018        1.85724        1.57199
S         -1.64003       -1.31224        1.79559
S         -4.69311       -0.76830        1.01299
H          2.59544        1.77877        4.56214
H          0.08731        1.96292        4.48582
H          0.28812        0.60213        0.43243
H          0.35234       -0.84917       -1.02717
H          3.71606       -2.74527        0.48216
H          2.44685       -4.81712        0.88430
H         -0.02774       -4.86389        0.41178
H         -1.41427       -3.85809       -2.40477
H         -1.41787        3.52968        2.66302
H         -3.81017        3.90984        2.11640
H         -3.80675       -3.47212       -2.96810
H         -5.21339       -2.03204       -1.50683
H         -5.21271        2.02398        1.29417
O          5.48679       -0.82725        1.15870
O          4.51489        2.85526       -0.49256
O          4.45575       -0.73677       -2.91725
H          3.82088        1.03927        2.54724
N          1.69386        0.93031       -1.58276
C          0.77471        1.43418       -2.07470
H         -1.78938        1.07229       -1.38579
C         -1.65680        1.77040       -2.21387
C         -0.36812        2.06021       -2.68569
C         -2.75728        2.37936       -2.80968
H         -3.76148        2.15623       -2.44508
C         -0.18509        2.95595       -3.74985
C         -2.57704        3.27073       -3.86814
C         -1.29405        3.55786       -4.33655
H          0.82136        3.17498       -4.10990
H         -3.44387        3.74569       -4.33211
H         -1.15571        4.25527       -5.16456
