60
	Energy: -2237800.6080970
Mn         3.20496        0.18413       -0.47001
C          4.00127       -0.44816       -1.99753
C          4.63180       -0.35998        0.52644
C          3.98439        1.83543       -0.63064
N          2.10705        0.81594        1.27635
N          2.17709       -1.69396       -0.19783
C          2.70438        1.29412        2.38178
C          1.98831        1.79297        3.46119
C          0.59630        1.82685        3.40307
C         -0.03796        1.32678        2.26622
C          0.77288        0.81956        1.25185
C          0.91503       -1.83518       -0.61403
C          0.06987       -2.86974       -0.21989
C          2.68098       -2.67767        0.56627
C          1.94267       -3.79053        0.94719
C          0.60511       -3.88285        0.57306
C         -1.37050       -2.76280       -0.58841
C         -1.50520        1.42486        2.02519
C         -2.30207        0.31618        1.67834
C         -2.23277       -2.00596        0.22702
C         -3.64380        0.50453        1.31824
C         -3.56417       -1.80289       -0.15856
C         -1.87009       -3.34009       -1.75782
C         -2.09868        2.69212        2.06747
C         -3.43724        2.87033        1.72962
C         -3.19768       -3.14201       -2.13306
C         -4.03985       -2.35864       -1.34907
C         -4.20557        1.78296        1.32754
S         -1.64584       -1.33689        1.77004
S         -4.67186       -0.87575        0.87547
H          2.52437        2.16579        4.33404
H          0.01328        2.23754        4.23001
H          0.29352        0.41498        0.36646
H          0.52622       -1.06945       -1.28090
H          3.71403       -2.57702        0.89727
H          2.41201       -4.55896        1.56155
H         -0.01579       -4.71697        0.90537
H         -1.20396       -3.93436       -2.38617
H         -1.48703        3.55555        2.33703
H         -3.87721        3.86854        1.75332
H         -3.57551       -3.58803       -3.05448
H         -5.07245       -2.17943       -1.65478
H         -5.24504        1.91987        1.02351
O          5.56013       -0.64985        1.12853
O          4.46521        2.86569       -0.72766
O          4.48508       -0.86001       -2.94474
H          3.79515        1.28791        2.40159
N          1.63577        0.91856       -1.53774
C          0.65881        1.38134       -1.94485
H         -1.60033        0.15692       -1.31550
C         -1.74828        1.09753       -1.85000
C         -0.64773        1.85526       -2.28806
C         -3.03484        1.55653       -2.10212
H         -3.89134        0.97472       -1.75641
C         -0.83141        3.05951       -2.98152
C         -3.22204        2.75706       -2.78945
C         -2.12652        3.50223       -3.22992
H          0.03063        3.63863       -3.31470
H         -4.23417        3.11622       -2.98487
H         -2.28241        4.43823       -3.76829
