61
	Energy: -3853065.6879604
Mn        -1.22873       -0.51376        1.82181
C         -1.87759       -1.93431        2.77371
O         -2.27815       -2.82438        3.36724
C         -2.27341        0.67254        2.75663
O         -2.90669        1.40841        3.35475
C          0.09709       -0.29428        3.05038
N         -0.50983        1.11090        0.61148
C         -0.93937        2.87293       -0.95517
C          0.42123        3.13751       -1.07546
C          0.79093        1.40647        0.52600
H         -1.68320        3.44523       -1.51005
H          0.78468        3.91836       -1.74692
N         -2.68011       -0.75005        0.43807
C         -3.51757       -0.89079       -0.34321
C         -4.51430       -1.11413       -1.34481
C         -4.14851       -1.03609       -2.69674
C         -5.11214       -1.26288       -3.67314
C         -5.83077       -1.41572       -0.96765
H         -3.12059       -0.79510       -2.97178
H         -6.10049       -1.46143        0.08793
N         -0.04477       -1.87635        0.63579
C          0.09390       -3.68877       -0.92981
C          1.47634       -3.54625       -1.01561
H         -0.43284       -4.45033       -1.50502
C         -1.36482        1.85333       -0.11419
H         -2.43433        1.65187       -0.01230
C         -0.62540       -2.83423       -0.10728
H         -1.70860       -2.92369       -0.03664
H         -4.83927       -1.20037       -4.72774
O          0.91165       -0.15653        3.84261
S          3.03465        0.09353       -1.51071
S          6.18530        0.59010       -1.38361
C          1.31793        2.38465       -0.31688
C          2.79057        2.60199       -0.35714
C          3.31898        3.82820        0.06073
C          4.69454        4.04337        0.08247
C          5.56653        3.03217       -0.30999
C          5.05601        1.81698       -0.77236
C          3.67177        1.59852       -0.80359
H          2.63680        4.61269        0.39483
H          5.09174        5.00015        0.42560
H          6.64682        3.18470       -0.26981
C          4.09838       -1.11588       -0.75273
C          5.48251       -0.89797       -0.71723
C          6.33596       -1.87988       -0.20832
C          5.81268       -3.09415        0.22618
C          4.43775       -3.31387        0.19722
C          3.56470       -2.32513       -0.26786
H          7.41054       -1.69212       -0.16492
H          6.48114       -3.86849        0.60621
H          4.02585       -4.25749        0.56101
C          2.09511       -2.56383       -0.24463
H          2.06687       -4.18566       -1.67497
C          1.28662       -1.78194        0.58182
H          1.76511       -1.05155        1.23188
H          1.47486        0.85241        1.16660
C         -6.42380       -1.56478       -3.30342
C         -6.78157       -1.64169       -1.95614
H         -7.80991       -1.87259       -1.67397
H         -7.17710       -1.73908       -4.07424
Br        -5.05864        2.44612       -0.05105
