60
	Energy: -2237800.6080970
Mn       3.2049600000      0.1841300000     -0.4700100000                 
C        4.0012700000     -0.4481600000     -1.9975300000                 
C        4.6318000000     -0.3599800000      0.5264400000                 
C        3.9843900000      1.8354300000     -0.6306400000                 
N        2.1070500000      0.8159400000      1.2763500000                 
N        2.1770900000     -1.6939600000     -0.1978300000                 
C        2.7043800000      1.2941200000      2.3817800000                 
C        1.9883100000      1.7929700000      3.4611900000                 
C        0.5963000000      1.8268500000      3.4030700000                 
C       -0.0379600000      1.3267800000      2.2662200000                 
C        0.7728800000      0.8195600000      1.2518500000                 
C        0.9150300000     -1.8351800000     -0.6140300000                 
C        0.0698700000     -2.8697400000     -0.2198900000                 
C        2.6809800000     -2.6776700000      0.5662700000                 
C        1.9426700000     -3.7905300000      0.9471900000                 
C        0.6051100000     -3.8828500000      0.5730600000                 
C       -1.3705000000     -2.7628000000     -0.5884100000                 
C       -1.5052000000      1.4248600000      2.0251900000                 
C       -2.3020700000      0.3161800000      1.6783400000                 
C       -2.2327700000     -2.0059600000      0.2270200000                 
C       -3.6438000000      0.5045300000      1.3182400000                 
C       -3.5641700000     -1.8028900000     -0.1585600000                 
C       -1.8700900000     -3.3400900000     -1.7578200000                 
C       -2.0986800000      2.6921200000      2.0674700000                 
C       -3.4372400000      2.8703300000      1.7296200000                 
C       -3.1976800000     -3.1420100000     -2.1330600000                 
C       -4.0398500000     -2.3586400000     -1.3490700000                 
C       -4.2055700000      1.7829600000      1.3275400000                 
S       -1.6458400000     -1.3368900000      1.7700400000                 
S       -4.6718600000     -0.8757500000      0.8754700000                 
H        2.5243700000      2.1657900000      4.3340400000                 
H        0.0132800000      2.2375400000      4.2300100000                 
H        0.2935200000      0.4149800000      0.3664600000                 
H        0.5262200000     -1.0694500000     -1.2809000000                 
H        3.7140300000     -2.5770200000      0.8972700000                 
H        2.4120100000     -4.5589600000      1.5615500000                 
H       -0.0157900000     -4.7169700000      0.9053700000                 
H       -1.2039600000     -3.9343600000     -2.3861700000                 
H       -1.4870300000      3.5555500000      2.3370300000                 
H       -3.8772100000      3.8685400000      1.7533200000                 
H       -3.5755100000     -3.5880300000     -3.0544800000                 
H       -5.0724500000     -2.1794300000     -1.6547800000                 
H       -5.2450400000      1.9198700000      1.0235100000                 
O        5.5601300000     -0.6498500000      1.1285300000                 
O        4.4652100000      2.8656900000     -0.7276600000                 
O        4.4850800000     -0.8600100000     -2.9447400000                 
H        3.7951500000      1.2879100000      2.4015900000                 
N        1.6357700000      0.9185600000     -1.5377400000                 
C        0.6588100000      1.3813400000     -1.9448500000                 
C       -0.6477300000      1.8552600000     -2.2880600000                 
C       -0.8314100000      3.0595100000     -2.9815200000                 
C       -1.7482800000      1.0975300000     -1.8500000000                 
C       -2.1265200000      3.5022300000     -3.2299200000                 
H        0.0306300000      3.6386300000     -3.3147000000                 
C       -3.0348400000      1.5565300000     -2.1021200000                 
H       -1.6003300000      0.1569200000     -1.3155000000                 
C       -3.2220400000      2.7570600000     -2.7894500000                 
H       -2.2824100000      4.4382300000     -3.7682900000                 
H       -3.8913400000      0.9747200000     -1.7564100000                 
H       -4.2341700000      3.1162200000     -2.9848700000                 
